sol/case9.m
function mpc = case9
%CASE9

%% MATPOWER Case Format : Version 2
mpc.version = '2';

%%-----  Power Flow Data  -----%%
%% system MVA base
mpc.baseMVA = 100;

%% bus data
%	bus_i	type	Pd	Qd	Gs	Bs	area	Vm	Va	baseKV	zone	Vmax	Vmin	lam_P	lam_Q	mu_Vmax	mu_Vmin
mpc.bus = [
	1	3	0	0	0	0	1	1.09995086	0	345	1	1.1	0.9	24.7557	0.0000	8.3844	0.0000;
	2	2	0	0	0	0	1	1.09736288	4.89310902	345	1	1.1	0.9	24.0345	-0.0000	0.0000	0.0000;
	3	2	0	0	0	0	1	1.08662735	3.24900488	345	1	1.1	0.9	24.0759	-0.0000	0.0000	0.0000;
	4	1	0	0	0	0	1	1.09418625	-2.46311051	345	1	1.1	0.9	24.7559	0.0044	0.0000	0.0000;
	5	1	90	30	0	0	1	1.08442437	-3.98235172	345	1	1.1	0.9	24.9985	0.0266	0.0000	0.0000;
	6	1	0	0	0	0	1	1.09999914	0.602365856	345	1	1.1	0.9	24.0759	0.0000	75.3287	0.0000;
	7	1	100	35	0	0	1	1.08948862	-1.19679027	345	1	1.1	0.9	24.2539	0.0355	0.0000	0.0000;
	8	1	0	0	0	0	1	1.09999917	0.905123806	345	1	1.1	0.9	24.0345	0.0000	77.4572	0.0000;
	9	1	125	50	0	0	1	1.07173093	-4.61562087	345	1	1.1	0.9	24.9985	0.1116	0.0000	0.0000;
];

%% generator data
%	bus	Pg	Qg	Qmax	Qmin	Vg	mBase	status	Pmax	Pmin	Pc1	Pc2	Qc1min	Qc1max	Qc2min	Qc2max	ramp_agc	ramp_10	ramp_30	ramp_q	apf	mu_Pmax	mu_Pmin	mu_Qmax	mu_Qmin
mpc.gen = [
	1	89.7986138	12.9387359	300	-300	1.09995086	100	1	250	10	0	0	0	0	0	0	0	0	0	0	0	0.0000	0.0000	0.0000	0.0000;
	2	134.320652	0.0477295055	300	-300	1.09736288	100	1	300	10	0	0	0	0	0	0	0	0	0	0	0	0.0000	0.0000	0.0000	0.0000;
	3	94.1874386	-22.6197302	300	-300	1.08662735	100	1	270	10	0	0	0	0	0	0	0	0	0	0	0	0.0000	0.0000	0.0000	0.0000;
];

%% branch data
%	fbus	tbus	r	x	b	rateA	rateB	rateC	ratio	angle	status	angmin	angmax	Pf	Qf	Pt	Qt	mu_Sf	mu_St	mu_angmin	mu_angmax
mpc.branch = [
	1	4	0	0.0576	0	250	250	250	0	0	1	-360	360	89.7986	12.9388	-89.7986	-9.0201	0.0000	0.0000	0.0000	0.0000;
	4	5	0.017	0.092	0.158	250	250	250	0	0	1	-360	360	35.2210	-3.9029	-35.0405	-13.8685	0.0000	0.0000	0.0000	0.0000;
	5	6	0.039	0.17	0.358	150	150	150	0	0	1	-360	360	-54.9595	-16.1315	55.9693	-22.1760	0.0000	0.0000	0.0000	0.0000;
	3	6	0	0.0586	0	300	300	300	0	0	1	-360	360	94.1874	-22.6197	-94.1874	27.2764	0.0000	0.0000	0.0000	0.0000;
	6	7	0.0119	0.1008	0.209	150	150	150	0	0	1	-360	360	38.2182	-5.1004	-38.0689	-18.6839	0.0000	0.0000	0.0000	0.0000;
	7	8	0.0085	0.072	0.149	250	250	250	0	0	1	-360	360	-61.9311	-16.3161	62.2097	0.8190	0.0000	0.0000	0.0000	0.0000;
	8	2	0	0.0625	0	250	250	250	0	0	1	-360	360	-134.3207	9.3163	134.3207	0.0477	0.0000	0.0000	0.0000	0.0000;
	8	9	0.032	0.161	0.306	250	250	250	0	0	1	-360	360	72.1109	-10.1353	-70.7171	-18.9389	0.0000	0.0000	0.0000	0.0000;
	9	4	0.01	0.085	0.176	250	250	250	0	0	1	-360	360	-54.2828	-31.0611	54.5776	12.9231	0.0000	0.0000	0.0000	0.0000;
];

%%-----  OPF Data  -----%%
%% generator cost data
%	1	startup	shutdown	n	x1	y1	...	xn	yn
%	2	startup	shutdown	n	c(n-1)	...	c0
mpc.gencost = [
	2	1500	0	3	0.11	5	150;
	2	2000	0	3	0.085	1.2	600;
	2	3000	0	3	0.1225	1	335;
];
